test/WECC240.m
function mpc = WECC240
mpc.version = "2";
mpc.baseMVA = 100.0;

%% bus data
%	bus_i type Pd Qd Gs Bs area Vm Va baseKV zone Vmax Vmin
mpc.bus = [
     1  1     0.000     0.000     0.000     0.000   1  1.0000  0.0000 500.000   1  1.100  0.900;
     2  1     0.000     0.000   228.184  -595.217   1  1.0000  0.0000 345.000   1  1.100  0.900;
     3  1     0.000     0.000  2256.917   395.101   1  1.0000  0.0000 230.000   1  1.100  0.900;
     4  1     0.000     0.000  1027.872     5.308   1  1.0000  0.0000 345.000   1  1.100  0.900;
     5  2     0.000     0.000     0.000     0.000   1  1.0000  0.0000  20.000   1  1.100  0.900;
     6  2     0.000     0.000     0.000     0.000   1  1.0000  0.0000  20.000   1  1.100  0.900;
     7  1     0.000     0.000  4572.192  -137.031   1  1.0000  0.0000 500.000   1  1.100  0.900;
     8  1     0.000     0.000   183.470    24.385   1  1.0000  0.0000 345.000   1  1.100  0.900;
     9  2     0.000     0.000     0.000     0.000   1  1.0000  0.0000  20.000   1  1.100  0.900;
    10  1     0.000     0.000   157.064    -1.745   1  1.0000  0.0000 500.000   1  1.100  0.900;
    11  1     0.000     0.000   826.965   251.092   1  1.0000  0.0000 500.000   1  1.100  0.900;
    12  2     0.000     0.000     0.000     0.000   1  1.0000  0.0000  20.000   1  1.100  0.900;
    13  1     0.000     0.000  2640.071   329.555   1  1.0000  0.0000 500.000   1  1.100  0.900;
    14  1     0.000     0.000    17.430     2.227   1  1.0000  0.0000 500.000   1  1.100  0.900;
    15  1     0.000     0.000  6328.198   821.382   1  1.0000  0.0000 345.000   1  1.100  0.900;
    16  2     0.000     0.000     0.000     0.000   1  1.0000  0.0000  20.000   1  1.100  0.900;
    17  2     0.000     0.000     0.000     0.000   1  1.0000  0.0000  20.000   1  1.100  0.900;
    18  1     0.000     0.000  6440.820  1451.689   1  1.0000  0.0000 500.000   1  1.100  0.900;
    19  1     0.000     0.000  5175.686  -547.269   1  1.0000  0.0000 500.000   1  1.100  0.900;
    20  1     0.000     0.000     0.000     0.000   1  1.0000  0.0000 230.000   1  1.100  0.900;
    21  2     0.000     0.000     0.000     0.000   1  1.0000  0.0000  20.000   1  1.100  0.900;
    22  1     0.000     0.000  2251.332   293.674   1  1.0000  0.0000 230.000   1  1.100  0.900;
    23  2     0.000     0.000     0.000     0.000   1  1.0000  0.0000  20.000   1  1.100  0.900;
    24  1     0.000     0.000   249.369    46.987   1  1.0000  0.0000 230.000   1  1.100  0.900;
    25  2     0.000     0.000     0.000     0.000   1  1.0000  0.0000  20.000   1  1.100  0.900;
    26  1     0.000     0.000     0.000     0.000   1  1.0000  0.0000 500.000   1  1.100  0.900;
    27  1     0.000     0.000  1442.236   254.618   1  1.0000  0.0000 230.000   1  1.100  0.900;
    28  1     0.000     0.000  1560.648   252.919   1  1.0000  0.0000 230.000   1  1.100  0.900;
    29  2     0.000     0.000     0.000     0.000   1  1.0000  0.0000  20.000   1  1.100  0.900;
    30  1     0.000     0.000     0.000     0.000   1  1.0000  0.0000 500.000   1  1.100  0.900;
    31  1     0.000     0.000     0.000     0.000   1  1.0000  0.0000 230.000   1  1.100  0.900;
    32  2     0.000     0.000     0.000     0.000   1  1.0000  0.0000  20.000   1  1.100  0.900;
    33  1     0.000     0.000   756.438    67.195   1  1.0000  0.0000 500.000   1  1.100  0.900;
    34  1     0.000     0.000   771.689    87.664   1  1.0000  0.0000 500.000   1  1.100  0.900;
    35  1     0.000     0.000   963.069    71.008   1  1.0000  0.0000 500.000   1  1.100  0.900;
    36  1     0.000     0.000   943.410    33.894   1  1.0000  0.0000 500.000   1  1.100  0.900;
    37  1     0.000     0.000     0.000     0.000   1  1.0000  0.0000 500.000   1  1.100  0.900;
    38  1     0.000     0.000   749.018    20.578   1  1.0000  0.0000 230.000   1  1.100  0.900;
    39  1     0.000     0.000   672.399   -36.909   1  1.0000  0.0000 230.000   1  1.100  0.900;
    40  1     0.000     0.000  1642.627    64.235   1  1.0000  0.0000 230.000   1  1.100  0.900;
    41  1     0.000     0.000  1586.054   -65.484   1  1.0000  0.0000 230.000   1  1.100  0.900;
    42  1     0.000     0.000  1441.601   -76.498   1  1.0000  0.0000 230.000   1  1.100  0.900;
    43  1     0.000     0.000  1439.685    52.838   1  1.0000  0.0000 230.000   1  1.100  0.900;
    44  1     0.000     0.000   978.654    66.991   1  1.0000  0.0000 230.000   1  1.100  0.900;
    45  2     0.000     0.000     0.000     0.000   1  1.0000  0.0000  20.000   1  1.100  0.900;
    46  2     0.000     0.000     0.000     0.000   1  1.0000  0.0000  20.000   1  1.100  0.900;
    47  2     0.000     0.000     0.000     0.000   1  1.0000  0.0000  20.000   1  1.100  0.900;
    48  2     0.000     0.000     0.000     0.000   1  1.0000  0.0000  20.000   1  1.100  0.900;
    49  1     0.000     0.000     0.000     0.000   1  1.0000  0.0000 500.000   1  1.100  0.900;
    50  1     0.000     0.000  2129.600   -80.892   1  1.0000  0.0000 230.000   1  1.100  0.900;
    51  1     0.000     0.000  1679.445   182.135   1  1.0000  0.0000 230.000   1  1.100  0.900;
    52  2     0.000     0.000     0.000     0.000   1  1.0000  0.0000  20.000   1  1.100  0.900;
    53  1     0.000     0.000 -1623.818     0.000   1  1.0000  0.0000 500.000   1  1.100  0.900;
    54  1     0.000     0.000     0.000     0.000   1  1.0000  0.0000 500.000   1  1.100  0.900;
    55  1     0.000     0.000    89.282    11.414   1  1.0000  0.0000 500.000   1  1.100  0.900;
    56  1     0.000     0.000     0.000     0.000   1  1.0000  0.0000 500.000   1  1.100  0.900;
    57  1     0.000     0.000  1827.784     0.000   1  1.0000  0.0000 345.000   1  1.100  0.900;
    58  1     0.000     0.000     0.000     0.000   1  1.0000  0.0000 287.000   1  1.100  0.900;
    59  1     0.000     0.000     0.000     0.000   1  1.0000  0.0000 287.000   1  1.100  0.900;
    60  1     0.000     0.000     0.000     0.000   1  1.0000  0.0000 287.000   1  1.100  0.900;
    61  1     0.000     0.000    89.791    11.544   1  1.0000  0.0000 230.000   1  1.100  0.900;
    62  1     0.000     0.000   123.206    24.675   1  1.0000  0.0000 230.000   1  1.100  0.900;
    63  1     0.000     0.000    90.774    11.798   1  1.0000  0.0000 230.000   1  1.100  0.900;
    64  1     0.000     0.000    89.791    11.544   1  1.0000  0.0000 230.000   1  1.100  0.900;
    65  1     0.000     0.000   108.800    22.178   1  1.0000  0.0000 230.000   1  1.100  0.900;
    66  1     0.000     0.000   293.479    59.988   1  1.0000  0.0000 230.000   1  1.100  0.900;
    67  1     0.000     0.000   125.615    25.455   1  1.0000  0.0000 230.000   1  1.100  0.900;
    68  1     0.000     0.000   733.027   119.354   1  1.0000  0.0000 230.000   1  1.100  0.900;
    69  1     0.000     0.000   107.090    22.062   1  1.0000  0.0000 230.000   1  1.100  0.900;
    70  1     0.000     0.000   110.642    22.935   1  1.0000  0.0000 230.000   1  1.100  0.900;
    71  1     0.000     0.000   800.399    -5.530   1  1.0000  0.0000 230.000   1  1.100  0.900;
    72  1     0.000     0.000 -2515.859     0.000   1  1.0000  0.0000 230.000   1  1.100  0.900;
    73  1     0.000     0.000   185.391    15.763   1  1.0000  0.0000 230.000   1  1.100  0.900;
    74  1     0.000     0.000   213.603   -56.235   1  1.0000  0.0000 138.000   1  1.100  0.900;
    75  2     0.000     0.000     0.000     0.000   1  1.0000  0.0000  20.000   1  1.100  0.900;
    76  2     0.000     0.000     0.000     0.000   1  1.0000  0.0000  20.000   1  1.100  0.900;
    77  2     0.000     0.000     0.000     0.000   1  1.0000  0.0000  20.000   1  1.100  0.900;
    78  2     0.000     0.000     0.000     0.000   1  1.0000  0.0000  20.000   1  1.100  0.900;
    79  2     0.000     0.000     0.000     0.000   1  1.0000  0.0000  20.000   1  1.100  0.900;
    80  1     0.000     0.000     0.000     0.000   1  1.0000  0.0000 500.000   1  1.100  0.900;
    81  1     0.000     0.000     0.000  -200.000   1  1.0000  0.0000 500.000   1  1.100  0.900;
    82  1     0.000     0.000   319.852    50.540   1  1.0000  0.0000 230.000   1  1.100  0.900;
    83  1     0.000     0.000   148.638    23.594   1  1.0000  0.0000 230.000   1  1.100  0.900;
    84  1     0.000     0.000   388.027    55.683   1  1.0000  0.0000 230.000   1  1.100  0.900;
    85  1     0.000     0.000   289.182    38.050   1  1.0000  0.0000 115.000   1  1.100  0.900;
    86  1     0.000     0.000   219.679    45.066   1  1.0000  0.0000 115.000   1  1.100  0.900;
    87  2     0.000     0.000     0.000     0.000   1  1.0000  0.0000  20.000   1  1.100  0.900;
    88  2     0.000     0.000     0.000     0.000   1  1.0000  0.0000  20.000   1  1.100  0.900;
    89  1     0.000     0.000   425.520    90.234   1  1.0000  0.0000 230.000   1  1.100  0.900;
    90  1     0.000     0.000   539.522    77.030   1  1.0000  0.0000 230.000   1  1.100  0.900;
    91  1     0.000     0.000   604.394   146.047   1  1.0000  0.0000 230.000   1  1.100  0.900;
    92  1     0.000     0.000   607.868    85.773   1  1.0000  0.0000 230.000   1  1.100  0.900;
    93  1     0.000     0.000   502.045    71.620   1  1.0000  0.0000 230.000   1  1.100  0.900;
    94  2     0.000     0.000     0.000     0.000   1  1.0000  0.0000  20.000   1  1.100  0.900;
    95  1     0.000     0.000     0.000     0.000   1  1.0000  0.0000 500.000   1  1.100  0.900;
    96  1     0.000     0.000   322.705    81.611   1  1.0000  0.0000 230.000   1  1.100  0.900;
    97  1     0.000     0.000   574.127   138.356   1  1.0000  0.0000 230.000   1  1.100  0.900;
    98  1     0.000     0.000   495.493   115.222   1  1.0000  0.0000 230.000   1  1.100  0.900;
    99  1     0.000     0.000   397.483    56.903   1  1.0000  0.0000 230.000   1  1.100  0.900;
   100  2     0.000     0.000     0.000     0.000   1  1.0000  0.0000  20.000   1  1.100  0.900;
   101  1     0.000     0.000   533.724   135.590   1  1.0000  0.0000 230.000   1  1.100  0.900;
   102  1     0.000     0.000     0.000     0.000   1  1.0000  0.0000 230.000   1  1.100  0.900;
   103  1     0.000     0.000   473.659    67.549   1  1.0000  0.0000 230.000   1  1.100  0.900;
   104  1     0.000     0.000   408.377    58.659   1  1.0000  0.0000 230.000   1  1.100  0.900;
   105  1     0.000     0.000   431.487    64.136   1  1.0000  0.0000 230.000   1  1.100  0.900;
   106  1     0.000     0.000     0.000     0.000   1  1.0000  0.0000  20.000   1  1.100  0.900;
   107  2     0.000     0.000     0.000     0.000   1  1.0000  0.0000  20.000   1  1.100  0.900;
   108  1     0.000     0.000   573.764    81.716   1  1.0000  0.0000 230.000   1  1.100  0.900;
   109  2     0.000     0.000     0.000     0.000   1  1.0000  0.0000  20.000   1  1.100  0.900;
   110  1     0.000     0.000    94.835    13.227   1  1.0000  0.0000 115.000   1  1.100  0.900;
   111  2     0.000     0.000     0.000     0.000   1  1.0000  0.0000  20.000   1  1.100  0.900;
   112  1     0.000     0.000   323.392    16.164   1  1.0000  0.0000 115.000   1  1.100  0.900;
   113  2     0.000     0.000     0.000     0.000   1  1.0000  0.0000  20.000   1  1.100  0.900;
   114  1     0.000     0.000   167.343    39.552   1  1.0000  0.0000 500.000   1  1.100  0.900;
   115  1     0.000     0.000     0.000     0.000   1  1.0000  0.0000 500.000   1  1.100  0.900;
   116  1     0.000     0.000     0.000     0.000   1  1.0000  0.0000 500.000   1  1.100  0.900;
   117  1     0.000     0.000   205.860    51.059   1  1.0000  0.0000 230.000   1  1.100  0.900;
   118  1     0.000     0.000   442.936   139.776   1  1.0000  0.0000 230.000   1  1.100  0.900;
   119  1     0.000     0.000   260.882    36.571   1  1.0000  0.0000 230.000   1  1.100  0.900;
   120  3     0.000     0.000     0.000     0.000   1  1.0000  0.0000  20.000   1  1.100  0.900;
   121  1     0.000     0.000     0.000     0.000   1  1.0000  0.0000  20.000   1  1.100  0.900;
   122  2     0.000     0.000     0.000     0.000   1  1.0000  0.0000  20.000   1  1.100  0.900;
   123  1     0.000     0.000     0.000     0.000   1  1.0000  0.0000 500.000   1  1.100  0.900;
   124  1     0.000     0.000     0.000     0.000   1  1.0000  0.0000 500.000   1  1.100  0.900;
   125  1     0.000     0.000     0.000     0.000   1  1.0000  0.0000 500.000   1  1.100  0.900;
   126  1     0.000     0.000     0.000     0.000   1  1.0000  0.0000 500.000   1  1.100  0.900;
   127  1     0.000     0.000     0.000     0.000   1  1.0000  0.0000 500.000   1  1.100  0.900;
   128  1     0.000     0.000     0.000     0.000   1  1.0000  0.0000 500.000   1  1.100  0.900;
   129  1     0.000     0.000     0.000     0.000   1  1.0000  0.0000 500.000   1  1.100  0.900;
   130  1     0.000     0.000     0.000     0.000   1  1.0000  0.0000 500.000   1  1.100  0.900;
   131  1     0.000     0.000   140.446    35.111   1  1.0000  0.0000 500.000   1  1.100  0.900;
   132  1     0.000     0.000   194.560    27.447   1  1.0000  0.0000 500.000   1  1.100  0.900;
   133  1     0.000     0.000     0.000     0.000   1  1.0000  0.0000 500.000   1  1.100  0.900;
   134  1     0.000     0.000     0.000     0.000   1  1.0000  0.0000 500.000   1  1.100  0.900;
   135  1     0.000     0.000     0.000     0.000   1  1.0000  0.0000 500.000   1  1.100  0.900;
   136  1     0.000     0.000   438.988    62.204   1  1.0000  0.0000 230.000   1  1.100  0.900;
   137  1     0.000     0.000   190.607    24.386   1  1.0000  0.0000 230.000   1  1.100  0.900;
   138  1     0.000     0.000   162.576    39.194   1  1.0000  0.0000 230.000   1  1.100  0.900;
   139  1     0.000     0.000   233.006    34.826   1  1.0000  0.0000 230.000   1  1.100  0.900;
   140  1     0.000     0.000   208.454    41.032   1  1.0000  0.0000 230.000   1  1.100  0.900;
   141  1     0.000     0.000   160.057    -0.581   1  1.0000  0.0000 230.000   1  1.100  0.900;
   142  1     0.000     0.000   307.023    41.067   1  1.0000  0.0000 230.000   1  1.100  0.900;
   143  1     0.000     0.000   211.390    49.312   1  1.0000  0.0000 230.000   1  1.100  0.900;
   144  1     0.000     0.000   235.466    49.813   1  1.0000  0.0000 230.000   1  1.100  0.900;
   145  1     0.000     0.000   142.561     0.000   1  1.0000  0.0000 230.000   1  1.100  0.900;
   146  1     0.000     0.000   218.441    40.307   1  1.0000  0.0000 230.000   1  1.100  0.900;
   147  1     0.000     0.000   295.335    70.336   1  1.0000  0.0000 230.000   1  1.100  0.900;
   148  1     0.000     0.000   175.103    23.639   1  1.0000  0.0000 230.000   1  1.100  0.900;
   149  1     0.000     0.000   162.004    22.748   1  1.0000  0.0000 230.000   1  1.100  0.900;
   150  1     0.000     0.000   129.455    27.920   1  1.0000  0.0000 230.000   1  1.100  0.900;
   151  1     0.000     0.000   236.450    30.263   1  1.0000  0.0000 230.000   1  1.100  0.900;
   152  1     0.000     0.000   360.521    59.586   1  1.0000  0.0000 230.000   1  1.100  0.900;
   153  1     0.000     0.000   306.150    43.561   1  1.0000  0.0000 230.000   1  1.100  0.900;
   154  1     0.000     0.000     0.000     0.000   1  1.0000  0.0000 115.000   1  1.100  0.900;
   155  1     0.000     0.000   249.098    15.762   1  1.0000  0.0000 115.000   1  1.100  0.900;
   156  2     0.000     0.000     0.000     0.000   1  1.0000  0.0000  20.000   1  1.100  0.900;
   157  2     0.000     0.000     0.000     0.000   1  1.0000  0.0000  20.000   1  1.100  0.900;
   158  2     0.000     0.000     0.000     0.000   1  1.0000  0.0000  20.000   1  1.100  0.900;
   159  1     0.000     0.000     0.000   600.000   1  1.0000  0.0000 500.000   1  1.100  0.900;
   160  1     0.000     0.000   157.595    18.824   1  1.0000  0.0000 500.000   1  1.100  0.900;
   161  1     0.000     0.000     0.000  -600.000   1  1.0000  0.0000 500.000   1  1.100  0.900;
   162  1     0.000     0.000   253.144    30.317   1  1.0000  0.0000 500.000   1  1.100  0.900;
   163  1     0.000     0.000   453.441   137.660   1  1.0000  0.0000 500.000   1  1.100  0.900;
   164  1     0.000     0.000     0.000     0.000   1  1.0000  0.0000 500.000   1  1.100  0.900;
   165  1     0.000     0.000     0.000     0.000   1  1.0000  0.0000 500.000   1  1.100  0.900;
   166  1     0.000     0.000   270.410    32.797   1  1.0000  0.0000 345.000   1  1.100  0.900;
   167  1     0.000     0.000  2086.035   377.249   1  1.0000  0.0000 230.000   1  1.100  0.900;
   168  1     0.000     0.000  2962.583     0.000   1  1.0000  0.0000 230.000   1  1.100  0.900;
   169  2     0.000     0.000     0.000     0.000   1  1.0000  0.0000  20.000   1  1.100  0.900;
   170  2     0.000     0.000     0.000     0.000   1  1.0000  0.0000  20.000   1  1.100  0.900;
   171  2     0.000     0.000     0.000     0.000   1  1.0000  0.0000  20.000   1  1.100  0.900;
   172  1     0.000     0.000     0.000     0.000   1  1.0000  0.0000 500.000   1  1.100  0.900;
   173  1     0.000     0.000     0.000     0.000   1  1.0000  0.0000 500.000   1  1.100  0.900;
   174  1     0.000     0.000     0.000     0.000   1  1.0000  0.0000 500.000   1  1.100  0.900;
   175  1     0.000     0.000     0.000     0.000   1  1.0000  0.0000 500.000   1  1.100  0.900;
   176  1     0.000     0.000     0.000     0.000   1  1.0000  0.0000 500.000   1  1.100  0.900;
   177  1     0.000     0.000     0.000     0.000   1  1.0000  0.0000 500.000   1  1.100  0.900;
   178  1     0.000     0.000     0.000     0.000   1  1.0000  0.0000 500.000   1  1.100  0.900;
   179  1     0.000     0.000     0.000     0.000   1  1.0000  0.0000 500.000   1  1.100  0.900;
   180  1     0.000     0.000   899.759   104.041   1  1.0000  0.0000 500.000   1  1.100  0.900;
   181  1     0.000     0.000   447.319    58.305   1  1.0000  0.0000 500.000   1  1.100  0.900;
   182  1     0.000     0.000    11.021     1.329   1  1.0000  0.0000 500.000   1  1.100  0.900;
   183  1     0.000     0.000  2473.486   309.538   1  1.0000  0.0000 230.000   1  1.100  0.900;
   184  2     0.000     0.000     0.000     0.000   1  1.0000  0.0000  20.000   1  1.100  0.900;
   185  2     0.000     0.000     0.000     0.000   1  1.0000  0.0000  20.000   1  1.100  0.900;
   186  1     0.000     0.000  5248.136   374.867   1  1.0000  0.0000 500.000   1  1.100  0.900;
   187  1     0.000     0.000  4386.231   539.799   1  1.0000  0.0000 500.000   1  1.100  0.900;
   188  1     0.000     0.000  4394.598   563.964   1  1.0000  0.0000 500.000   1  1.100  0.900;
   189  1     0.000     0.000   968.622   118.271   1  1.0000  0.0000 500.000   1  1.100  0.900;
   190  2     0.000     0.000     0.000     0.000   1  1.0000  0.0000  20.000   1  1.100  0.900;
   191  2     0.000     0.000     0.000     0.000   1  1.0000  0.0000  20.000   1  1.100  0.900;
   192  1     0.000     0.000  7357.651  1592.565   1  1.0000  0.0000 500.000   1  1.100  0.900;
   193  1     0.000     0.000  8705.274  1076.208   1  1.0000  0.0000 500.000   1  1.100  0.900;
   194  1     0.000     0.000   601.048    75.096   1  1.0000  0.0000 230.000   1  1.100  0.900;
   195  1     0.000     0.000     0.000     0.000   1  1.0000  0.0000 230.000   1  1.100  0.900;
   196  2     0.000     0.000     0.000     0.000   1  1.0000  0.0000  20.000   1  1.100  0.900;
   197  2     0.000     0.000     0.000     0.000   1  1.0000  0.0000  20.000   1  1.100  0.900;
   198  1     0.000     0.000     0.000     0.000   1  1.0000  0.0000 500.000   1  1.100  0.900;
   199  1     0.000     0.000  1042.919  -331.966   1  1.0000  0.0000 345.000   1  1.100  0.900;
   200  1     0.000     0.000   394.183    50.697   1  1.0000  0.0000 345.000   1  1.100  0.900;
...
];

%% generator data - SyncMachine+Solar+Wind
%	bus Pg Qg Qmax Qmin Vg mBase status Pmax Pmin Pc1 Pc2 Qc1min Qc1max Qc2min Qc2max ramp_agc ramp_10 ramp_30 ramp_q apf
mpc.gen = [
   244  856.000   -3.332  357.000 -357.000 1.0000 1050.000 1 1050.000    0.000 0.0 0.0 0.0 0.0 0.0 0.0 0.0 0.0 0.0 0.0 0.0;
     5  712.000   -3.332  200.000 -200.000 1.0000  873.000 1  873.000    0.000 0.0 0.0 0.0 0.0 0.0 0.0 0.0 0.0 0.0 0.0 0.0;
   246 2565.000  262.628  918.000 -918.000 1.0000 2900.000 1 2900.000    0.000 0.0 0.0 0.0 0.0 0.0 0.0 0.0 0.0 0.0 0.0 0.0;
     6 1847.000  262.628  500.000 -500.000 1.0000 2100.000 1 2100.000    0.000 0.0 0.0 0.0 0.0 0.0 0.0 0.0 0.0 0.0 0.0 0.0;
   248 2064.000  -46.791 1916.000 -1916.000 1.0000 4934.000 1 4934.000    0.000 0.0 0.0 0.0 0.0 0.0 0.0 0.0 0.0 0.0 0.0 0.0;
     9  530.000  -46.791  308.000 -308.000 1.0000 1268.000 1 1268.000    0.000 0.0 0.0 0.0 0.0 0.0 0.0 0.0 0.0 0.0 0.0 0.0;
   249  657.000    0.604  628.000 -628.000 1.0000 1199.000 1 1199.000    0.000 0.0 0.0 0.0 0.0 0.0 0.0 0.0 0.0 0.0 0.0 0.0;
    12 2728.000    0.604 1208.000 -1208.000 1.0000 4977.000 1 4977.000    0.000 0.0 0.0 0.0 0.0 0.0 0.0 0.0 0.0 0.0 0.0 0.0;
   250 2133.000   24.690 1219.000 -1219.000 1.0000 2328.000 1 2328.000    0.000 0.0 0.0 0.0 0.0 0.0 0.0 0.0 0.0 0.0 0.0 0.0;
    16 1986.000   24.690  841.000 -841.000 1.0000 2167.000 1 2167.000    0.000 0.0 0.0 0.0 0.0 0.0 0.0 0.0 0.0 0.0 0.0 0.0;
   251 3662.000  217.320 2746.000 -2746.000 1.0000 7011.000 1 7011.000    0.000 0.0 0.0 0.0 0.0 0.0 0.0 0.0 0.0 0.0 0.0 0.0;
    17  218.000  217.320  303.000 -303.000 1.0000  418.000 1  418.000    0.000 0.0 0.0 0.0 0.0 0.0 0.0 0.0 0.0 0.0 0.0 0.0;
   253 2355.000  409.166 2057.000 -2057.000 1.0000 4210.000 1 4210.000    0.000 0.0 0.0 0.0 0.0 0.0 0.0 0.0 0.0 0.0 0.0 0.0;
   254 1353.000  409.166 1000.000 -1000.000 1.0000 2419.000 1 2419.000    0.000 0.0 0.0 0.0 0.0 0.0 0.0 0.0 0.0 0.0 0.0 0.0;
    21 5129.000  409.166 3559.000 -3559.000 1.0000 9170.000 1 9170.000    0.000 0.0 0.0 0.0 0.0 0.0 0.0 0.0 0.0 0.0 0.0 0.0;
   255 1853.000  142.477 1070.000 -1070.000 1.0000 2140.000 1 2140.000    0.000 0.0 0.0 0.0 0.0 0.0 0.0 0.0 0.0 0.0 0.0 0.0;
    23  605.000  142.477  350.000 -350.000 1.0000  699.000 1  699.000    0.000 0.0 0.0 0.0 0.0 0.0 0.0 0.0 0.0 0.0 0.0 0.0;
   257  273.000   28.722  250.000 -250.000 1.0000  396.000 1  396.000    0.000 0.0 0.0 0.0 0.0 0.0 0.0 0.0 0.0 0.0 0.0 0.0;
   258   79.000   28.722   86.000  -86.000 1.0000  115.000 1  115.000    0.000 0.0 0.0 0.0 0.0 0.0 0.0 0.0 0.0 0.0 0.0 0.0;
    25  573.000   28.722  254.000 -254.000 1.0000  831.000 1  831.000    0.000 0.0 0.0 0.0 0.0 0.0 0.0 0.0 0.0 0.0 0.0 0.0;
   259  506.000  125.466  611.000 -181.000 1.0000 1837.000 1 1837.000    0.000 0.0 0.0 0.0 0.0 0.0 0.0 0.0 0.0 0.0 0.0 0.0;
   260  202.000  125.466  206.000 -155.000 1.0000  733.000 1  733.000    0.000 0.0 0.0 0.0 0.0 0.0 0.0 0.0 0.0 0.0 0.0 0.0;
    29  285.000  125.466  304.000 -118.000 1.0000 1035.000 1 1035.000    0.000 0.0 0.0 0.0 0.0 0.0 0.0 0.0 0.0 0.0 0.0 0.0;
   263  251.000   32.102  800.000 -800.000 1.0000 1146.000 1 1146.000    0.000 0.0 0.0 0.0 0.0 0.0 0.0 0.0 0.0 0.0 0.0 0.0;
   264  901.000   32.102 2301.000 -1053.000 1.0000 4110.000 1 4110.000    0.000 0.0 0.0 0.0 0.0 0.0 0.0 0.0 0.0 0.0 0.0 0.0;
   265  233.000   32.102  659.000 -523.000 1.0000 1460.000 1 1460.000    0.000 0.0 0.0 0.0 0.0 0.0 0.0 0.0 0.0 0.0 0.0 0.0;
   267 1276.000   32.102 1910.000 -1150.000 1.0000 5817.000 1 5817.000    0.000 0.0 0.0 0.0 0.0 0.0 0.0 0.0 0.0 0.0 0.0 0.0;
    47  503.000   32.102  728.000 -454.000 1.0000 2292.000 1 2292.000    0.000 0.0 0.0 0.0 0.0 0.0 0.0 0.0 0.0 0.0 0.0 0.0;
    75 2282.000  184.814 1346.000 -1346.000 1.0000 3947.000 1 3947.000    0.000 0.0 0.0 0.0 0.0 0.0 0.0 0.0 0.0 0.0 0.0 0.0;
    77 1537.000  -18.880  950.000 -950.000 1.0000 1900.000 1 1900.000    0.000 0.0 0.0 0.0 0.0 0.0 0.0 0.0 0.0 0.0 0.0 0.0;
    78   83.000   40.647  110.000 -110.000 1.0000  200.000 1  200.000    0.000 0.0 0.0 0.0 0.0 0.0 0.0 0.0 0.0 0.0 0.0 0.0;
    79  200.000    7.740  100.000 -100.000 1.0000  407.000 1  407.000    0.000 0.0 0.0 0.0 0.0 0.0 0.0 0.0 0.0 0.0 0.0 0.0;
    87   31.000  -12.551   42.000  -29.000 1.0000   80.000 1   80.000    0.000 0.0 0.0 0.0 0.0 0.0 0.0 0.0 0.0 0.0 0.0 0.0;
   269   14.000   42.757  100.000  -85.000 1.0000   38.000 1   38.000    0.000 0.0 0.0 0.0 0.0 0.0 0.0 0.0 0.0 0.0 0.0 0.0;
    88  206.000   42.757  239.000 -201.000 1.0000  541.000 1  541.000    0.000 0.0 0.0 0.0 0.0 0.0 0.0 0.0 0.0 0.0 0.0 0.0;
   270 2261.000  118.878 1244.000 -1234.000 1.0000 3853.000 1 3853.000    0.000 0.0 0.0 0.0 0.0 0.0 0.0 0.0 0.0 0.0 0.0 0.0;
   271  608.000  118.878  382.000 -212.000 1.0000 1037.000 1 1037.000    0.000 0.0 0.0 0.0 0.0 0.0 0.0 0.0 0.0 0.0 0.0 0.0;
    94  104.000  101.000  101.000  -75.000 1.0000  177.000 1  177.000    0.000 0.0 0.0 0.0 0.0 0.0 0.0 0.0 0.0 0.0 0.0 0.0;
   273  191.000   81.668  202.000 -143.000 1.0000  312.000 1  312.000    0.000 0.0 0.0 0.0 0.0 0.0 0.0 0.0 0.0 0.0 0.0 0.0;
   100  620.000   81.668  398.000 -226.000 1.0000 1012.000 1 1012.000    0.000 0.0 0.0 0.0 0.0 0.0 0.0 0.0 0.0 0.0 0.0 0.0;
   107  481.000   25.641  231.000 -175.000 1.0000  921.000 1  921.000    0.000 0.0 0.0 0.0 0.0 0.0 0.0 0.0 0.0 0.0 0.0 0.0;
   275  293.000   30.853  253.000 -181.000 1.0000  533.000 1  533.000    0.000 0.0 0.0 0.0 0.0 0.0 0.0 0.0 0.0 0.0 0.0 0.0;
   276   13.000   13.000   13.000  -10.000 1.0000   24.000 1   24.000    0.000 0.0 0.0 0.0 0.0 0.0 0.0 0.0 0.0 0.0 0.0 0.0;
   109  783.000   30.853 1004.000 -599.000 1.0000 1424.000 1 1424.000    0.000 0.0 0.0 0.0 0.0 0.0 0.0 0.0 0.0 0.0 0.0 0.0;
   277   67.000  -33.095   74.000  -34.000 1.0000  210.000 1  210.000    0.000 0.0 0.0 0.0 0.0 0.0 0.0 0.0 0.0 0.0 0.0 0.0;
   111   30.000  -14.000   20.000  -14.000 1.0000   96.000 1   96.000    0.000 0.0 0.0 0.0 0.0 0.0 0.0 0.0 0.0 0.0 0.0 0.0;
   113  222.000 -121.000  200.000 -121.000 1.0000  400.000 1  400.000    0.000 0.0 0.0 0.0 0.0 0.0 0.0 0.0 0.0 0.0 0.0 0.0;
   120 2108.000  -40.709 1175.000 -980.000 1.0000 2323.000 1 2323.000    0.000 0.0 0.0 0.0 0.0 0.0 0.0 0.0 0.0 0.0 0.0 0.0;
   279  150.000   28.865  500.000 -500.000 1.0000 1333.000 1 1333.000    0.000 0.0 0.0 0.0 0.0 0.0 0.0 0.0 0.0 0.0 0.0 0.0;
   122  679.000   -6.822  476.000 -352.000 1.0000 1497.000 1 1497.000    0.000 0.0 0.0 0.0 0.0 0.0 0.0 0.0 0.0 0.0 0.0 0.0;
   280 1212.000   72.471 1284.000 -946.000 1.0000 2875.000 1 2875.000    0.000 0.0 0.0 0.0 0.0 0.0 0.0 0.0 0.0 0.0 0.0 0.0;
   156  235.000   72.471  151.000 -115.000 1.0000  567.000 1  567.000    0.000 0.0 0.0 0.0 0.0 0.0 0.0 0.0 0.0 0.0 0.0 0.0;
   283  901.970   88.652  500.000 -307.000 1.0000 1927.000 1 1927.000    0.000 0.0 0.0 0.0 0.0 0.0 0.0 0.0 0.0 0.0 0.0 0.0;
   284 1275.022   88.652 1256.000 -1041.000 1.0000 2774.000 1 2774.000    0.000 0.0 0.0 0.0 0.0 0.0 0.0 0.0 0.0 0.0 0.0 0.0;
   285  346.372   88.652  200.000 -200.000 1.0000  740.000 1  740.000    0.000 0.0 0.0 0.0 0.0 0.0 0.0 0.0 0.0 0.0 0.0 0.0;
   286  623.937   88.652  800.000 -500.000 1.0000 1333.000 1 1333.000    0.000 0.0 0.0 0.0 0.0 0.0 0.0 0.0 0.0 0.0 0.0 0.0;
   289  208.800 -168.528  240.000 -240.000 1.0000  635.000 1  635.000    0.000 0.0 0.0 0.0 0.0 0.0 0.0 0.0 0.0 0.0 0.0 0.0;
   169  892.801 -168.528  502.000 -502.000 1.0000 2710.000 1 2710.000    0.000 0.0 0.0 0.0 0.0 0.0 0.0 0.0 0.0 0.0 0.0 0.0;
   290  448.200 -122.614  307.000 -307.000 1.0000 1656.000 1 1656.000    0.000 0.0 0.0 0.0 0.0 0.0 0.0 0.0 0.0 0.0 0.0 0.0;
   291  966.600 -122.614 1836.000 -1836.000 1.0000 3572.000 1 3572.000    0.000 0.0 0.0 0.0 0.0 0.0 0.0 0.0 0.0 0.0 0.0 0.0;
   292  697.500 -122.614  800.000 -800.000 1.0000 2578.000 1 2578.000    0.000 0.0 0.0 0.0 0.0 0.0 0.0 0.0 0.0 0.0 0.0 0.0;
   293 1455.300  380.224 1459.000 -1459.000 1.0000 2839.000 1 2839.000    0.000 0.0 0.0 0.0 0.0 0.0 0.0 0.0 0.0 0.0 0.0 0.0;
   171   77.400  102.000  102.000 -102.000 1.0000  150.000 1  150.000    0.000 0.0 0.0 0.0 0.0 0.0 0.0 0.0 0.0 0.0 0.0 0.0;
   295 7418.700  543.401 6482.000 -6482.000 1.0000 12613.000 1 12613.000    0.000 0.0 0.0 0.0 0.0 0.0 0.0 0.0 0.0 0.0 0.0 0.0;
   184  450.000  150.000  150.000 -150.000 1.0000  711.000 1  711.000    0.000 0.0 0.0 0.0 0.0 0.0 0.0 0.0 0.0 0.0 0.0 0.0;
   297 3835.801   52.261 2847.000 -2847.000 1.0000 5539.000 1 5539.000    0.000 0.0 0.0 0.0 0.0 0.0 0.0 0.0 0.0 0.0 0.0 0.0;
   298  900.000   52.261  231.000 -231.000 1.0000 1200.000 1 1200.000    0.000 0.0 0.0 0.0 0.0 0.0 0.0 0.0 0.0 0.0 0.0 0.0;
   299  270.000   52.261  160.000 -160.000 1.0000  400.000 1  400.000    0.000 0.0 0.0 0.0 0.0 0.0 0.0 0.0 0.0 0.0 0.0 0.0;
   185 1854.899   52.261 1473.000 -1473.000 1.0000 2170.000 1 2170.000    0.000 0.0 0.0 0.0 0.0 0.0 0.0 0.0 0.0 0.0 0.0 0.0;
   300  664.200  485.229  659.000 -659.000 1.0000  970.000 1  970.000    0.000 0.0 0.0 0.0 0.0 0.0 0.0 0.0 0.0 0.0 0.0 0.0;
   301 2406.601  485.229 1808.000 -1808.000 1.0000 3517.000 1 3517.000    0.000 0.0 0.0 0.0 0.0 0.0 0.0 0.0 0.0 0.0 0.0 0.0;
   190  999.000  485.229  728.000 -728.000 1.0000 1460.000 1 1460.000    0.000 0.0 0.0 0.0 0.0 0.0 0.0 0.0 0.0 0.0 0.0 0.0;
   303  316.800   -3.607  108.000 -108.000 1.0000  695.000 1  695.000    0.000 0.0 0.0 0.0 0.0 0.0 0.0 0.0 0.0 0.0 0.0 0.0;
   191  348.300   -3.607  592.000 -592.000 1.0000  872.000 1  872.000    0.000 0.0 0.0 0.0 0.0 0.0 0.0 0.0 0.0 0.0 0.0 0.0;
   304 5976.000  534.329 4399.000 -4399.000 1.0000 10747.000 1 10747.000    0.000 0.0 0.0 0.0 0.0 0.0 0.0 0.0 0.0 0.0 0.0 0.0;
   196  821.700  534.329  605.000 -605.000 1.0000 2650.000 1 2650.000    0.000 0.0 0.0 0.0 0.0 0.0 0.0 0.0 0.0 0.0 0.0 0.0;
   305 2695.500  410.280 2200.000 -2200.000 1.0000 9636.000 1 9636.000    0.000 0.0 0.0 0.0 0.0 0.0 0.0 0.0 0.0 0.0 0.0 0.0;
   306   66.600   54.000   54.000  -54.000 1.0000  108.000 1  108.000    0.000 0.0 0.0 0.0 0.0 0.0 0.0 0.0 0.0 0.0 0.0 0.0;
   307 2701.800  410.280 2205.000 -2205.000 1.0000 4410.200 1 4410.200    0.000 0.0 0.0 0.0 0.0 0.0 0.0 0.0 0.0 0.0 0.0 0.0;
   309 1043.100 -147.000  147.000 -147.000 1.0000 1272.000 1 1272.000    0.000 0.0 0.0 0.0 0.0 0.0 0.0 0.0 0.0 0.0 0.0 0.0;
   311  180.000  -75.000   75.000  -75.000 1.0000  395.000 1  395.000    0.000 0.0 0.0 0.0 0.0 0.0 0.0 0.0 0.0 0.0 0.0 0.0;
   202   45.000  -20.000   20.000  -20.000 1.0000  122.000 1  122.000    0.000 0.0 0.0 0.0 0.0 0.0 0.0 0.0 0.0 0.0 0.0 0.0;
   313  225.000  -70.000   70.000  -70.000 1.0000  250.000 1  250.000    0.000 0.0 0.0 0.0 0.0 0.0 0.0 0.0 0.0 0.0 0.0 0.0;
   208  705.150 -104.087 1256.000 -1256.000 1.0000 2488.000 1 2488.000    0.000 0.0 0.0 0.0 0.0 0.0 0.0 0.0 0.0 0.0 0.0 0.0;
   315  280.800   49.769  195.000 -195.000 1.0000  720.000 1  720.000    0.000 0.0 0.0 0.0 0.0 0.0 0.0 0.0 0.0 0.0 0.0 0.0;
   209   90.000   49.769   64.000  -64.000 1.0000  226.000 1  226.000    0.000 0.0 0.0 0.0 0.0 0.0 0.0 0.0 0.0 0.0 0.0 0.0;
   215 2837.700  330.576 1671.000 -1671.000 1.0000 4594.000 1 4594.000    0.000 0.0 0.0 0.0 0.0 0.0 0.0 0.0 0.0 0.0 0.0 0.0;
   317  295.200  260.575  330.000 -330.000 1.0000  418.000 1  418.000    0.000 0.0 0.0 0.0 0.0 0.0 0.0 0.0 0.0 0.0 0.0 0.0;
   318  259.200  260.575  406.000 -406.000 1.0000  400.000 1  400.000    0.000 0.0 0.0 0.0 0.0 0.0 0.0 0.0 0.0 0.0 0.0 0.0;
   216 2274.300  260.575  968.000 -968.000 1.0000 3000.000 1 3000.000    0.000 0.0 0.0 0.0 0.0 0.0 0.0 0.0 0.0 0.0 0.0 0.0;
   319  372.000   59.000   59.000  -59.000 1.0000  751.000 1  751.000    0.000 0.0 0.0 0.0 0.0 0.0 0.0 0.0 0.0 0.0 0.0 0.0;
   320  679.000   74.552  536.000 -536.000 1.0000 1369.000 1 1369.000    0.000 0.0 0.0 0.0 0.0 0.0 0.0 0.0 0.0 0.0 0.0 0.0;
   221  194.000   74.552  283.000 -283.000 1.0000  391.000 1  391.000    0.000 0.0 0.0 0.0 0.0 0.0 0.0 0.0 0.0 0.0 0.0 0.0;
   323   90.000   75.000   75.000  -75.000 1.0000  275.000 1  275.000    0.000 0.0 0.0 0.0 0.0 0.0 0.0 0.0 0.0 0.0 0.0 0.0;
   324  566.100   78.734  500.000 -500.000 1.0000 1407.000 1 1407.000    0.000 0.0 0.0 0.0 0.0 0.0 0.0 0.0 0.0 0.0 0.0 0.0;
   325  157.500   20.000   20.000  -20.000 1.0000  391.000 1  391.000    0.000 0.0 0.0 0.0 0.0 0.0 0.0 0.0 0.0 0.0 0.0 0.0;
   326 2242.802  380.609 2092.000 -2092.000 1.0000 6346.000 1 6346.000    0.000 0.0 0.0 0.0 0.0 0.0 0.0 0.0 0.0 0.0 0.0 0.0;
   329 1098.000  380.609 1000.000 -1000.000 1.0000 3106.000 1 3106.000    0.000 0.0 0.0 0.0 0.0 0.0 0.0 0.0 0.0 0.0 0.0 0.0;
   235 1105.199  380.609 1419.000 -1419.000 1.0000 3127.000 1 3127.000    0.000 0.0 0.0 0.0 0.0 0.0 0.0 0.0 0.0 0.0 0.0 0.0;
   331  390.600   22.012  346.000 -346.000 1.0000  672.000 1  672.000    0.000 0.0 0.0 0.0 0.0 0.0 0.0 0.0 0.0 0.0 0.0 0.0;
   332  428.400   22.012  230.000 -230.000 1.0000  738.000 1  738.000    0.000 0.0 0.0 0.0 0.0 0.0 0.0 0.0 0.0 0.0 0.0 0.0;
   236 1057.500   22.012  826.000 -826.000 1.0000 1821.000 1 1821.000    0.000 0.0 0.0 0.0 0.0 0.0 0.0 0.0 0.0 0.0 0.0 0.0;
   242 1182.000  259.732  786.000 -786.000 1.0000 1394.000 1 1394.000    0.000 0.0 0.0 0.0 0.0 0.0 0.0 0.0 0.0 0.0 0.0 0.0;
   333  427.000  239.367  344.000 -344.000 1.0000  544.000 1  544.000    0.000 0.0 0.0 0.0 0.0 0.0 0.0 0.0 0.0 0.0 0.0 0.0;
   243 2946.000  239.367 1280.000 -1280.000 1.0000 3754.000 1 3754.000    0.000 0.0 0.0 0.0 0.0 0.0 0.0 0.0 0.0 0.0 0.0 0.0;
    52 1899.000  127.613 1100.000 -820.000 1.0000 1999.000 1 1999.000    0.000 0.0 0.0 0.0 0.0 0.0 0.0 0.0 0.0 0.0 0.0 0.0;
    76  232.000   32.063  350.000 -350.000 1.0000  520.000 1  520.000    0.000 0.0 0.0 0.0 0.0 0.0 0.0 0.0 0.0 0.0 0.0 0.0;
   272 1021.000  118.878  150.000 -110.000 1.0000 1740.000 1 1740.000    0.000 0.0 0.0 0.0 0.0 0.0 0.0 0.0 0.0 0.0 0.0 0.0;
   274  745.000   25.641  939.000 -562.000 1.0000 1426.000 1 1426.000    0.000 0.0 0.0 0.0 0.0 0.0 0.0 0.0 0.0 0.0 0.0 0.0;
   278  229.000   28.865  662.000 -479.000 1.0000 2025.000 1 2025.000    0.000 0.0 0.0 0.0 0.0 0.0 0.0 0.0 0.0 0.0 0.0 0.0;
   157 1355.000 -242.757 1150.000 -500.000 1.0000 1426.000 1 1426.000    0.000 0.0 0.0 0.0 0.0 0.0 0.0 0.0 0.0 0.0 0.0 0.0;
   281  161.484   77.000   77.000  -55.000 1.0000  345.000 1  345.000    0.000 0.0 0.0 0.0 0.0 0.0 0.0 0.0 0.0 0.0 0.0 0.0;
   158  404.880   88.652  363.000  -82.000 1.0000  865.000 1  865.000    0.000 0.0 0.0 0.0 0.0 0.0 0.0 0.0 0.0 0.0 0.0 0.0;
   287  313.199 -168.528  489.000 -489.000 1.0000  952.000 1  952.000    0.000 0.0 0.0 0.0 0.0 0.0 0.0 0.0 0.0 0.0 0.0 0.0;
   288  140.400 -168.528  250.000 -250.000 1.0000  427.000 1  427.000    0.000 0.0 0.0 0.0 0.0 0.0 0.0 0.0 0.0 0.0 0.0 0.0;
   170  173.700 -122.614  255.000 -255.000 1.0000  642.000 1  642.000    0.000 0.0 0.0 0.0 0.0 0.0 0.0 0.0 0.0 0.0 0.0 0.0;
   294  712.800  380.224  500.000 -500.000 1.0000 1290.000 1 1290.000    0.000 0.0 0.0 0.0 0.0 0.0 0.0 0.0 0.0 0.0 0.0 0.0;
   296  555.300  120.000  120.000 -120.000 1.0000  790.000 1  790.000    0.000 0.0 0.0 0.0 0.0 0.0 0.0 0.0 0.0 0.0 0.0 0.0;
   302  222.300   -3.607  287.000 -287.000 1.0000  558.000 1  558.000    0.000 0.0 0.0 0.0 0.0 0.0 0.0 0.0 0.0 0.0 0.0 0.0;
   308  331.200  271.000  271.000 -271.000 1.0000  541.000 1  541.000    0.000 0.0 0.0 0.0 0.0 0.0 0.0 0.0 0.0 0.0 0.0 0.0;
   197 3646.800  410.280 2977.000 -2977.000 1.0000 13039.000 1 13039.000    0.000 0.0 0.0 0.0 0.0 0.0 0.0 0.0 0.0 0.0 0.0 0.0;
   310 1992.599 -387.445 1072.000 -1072.000 1.0000 2541.000 1 2541.000    0.000 0.0 0.0 0.0 0.0 0.0 0.0 0.0 0.0 0.0 0.0 0.0;
   312  503.100 -210.000  210.000 -210.000 1.0000  973.000 1  973.000    0.000 0.0 0.0 0.0 0.0 0.0 0.0 0.0 0.0 0.0 0.0 0.0;
   314 1040.400   49.769  347.000 -347.000 1.0000 2671.000 1 2671.000    0.000 0.0 0.0 0.0 0.0 0.0 0.0 0.0 0.0 0.0 0.0 0.0;
   316  919.800  330.576  350.000 -350.000 1.0000 1489.000 1 1489.000    0.000 0.0 0.0 0.0 0.0 0.0 0.0 0.0 0.0 0.0 0.0 0.0;
   321   75.000   50.000   50.000  -50.000 1.0000  152.000 1  152.000    0.000 0.0 0.0 0.0 0.0 0.0 0.0 0.0 0.0 0.0 0.0 0.0;
   322 1213.201   78.734  880.000 -880.000 1.0000 3239.000 1 3239.000    0.000 0.0 0.0 0.0 0.0 0.0 0.0 0.0 0.0 0.0 0.0 0.0;
   232 1318.501   78.734 1924.000 -1924.000 1.0000 3276.000 1 3276.000    0.000 0.0 0.0 0.0 0.0 0.0 0.0 0.0 0.0 0.0 0.0 0.0;
   327  123.300  175.000  175.000 -175.000 1.0000  509.000 1  509.000    0.000 0.0 0.0 0.0 0.0 0.0 0.0 0.0 0.0 0.0 0.0 0.0;
   330  861.300   22.012  489.000 -489.000 1.0000 1483.000 1 1483.000    0.000 0.0 0.0 0.0 0.0 0.0 0.0 0.0 0.0 0.0 0.0 0.0;
   245  520.000   -3.332  360.000 -360.000 1.0000  638.000 1  638.000    0.000 0.0 0.0 0.0 0.0 0.0 0.0 0.0 0.0 0.0 0.0 0.0;
   247 1598.000  262.628  800.000 -800.000 1.0000 1682.000 1 1682.000    0.000 0.0 0.0 0.0 0.0 0.0 0.0 0.0 0.0 0.0 0.0 0.0;
   252 1266.000  217.320 1300.000 -1300.000 1.0000 2423.000 1 2423.000    0.000 0.0 0.0 0.0 0.0 0.0 0.0 0.0 0.0 0.0 0.0 0.0;
   256  404.000   28.722  200.000 -200.000 1.0000  586.000 1  586.000    0.000 0.0 0.0 0.0 0.0 0.0 0.0 0.0 0.0 0.0 0.0 0.0;
    32  878.000   42.001  590.000 -364.000 1.0000 1333.000 1 1333.000    0.000 0.0 0.0 0.0 0.0 0.0 0.0 0.0 0.0 0.0 0.0 0.0;
    45  500.000  -46.886  800.000 -800.000 1.0000 1666.000 1 1666.000    0.000 0.0 0.0 0.0 0.0 0.0 0.0 0.0 0.0 0.0 0.0 0.0;
    46  500.000 -337.252  500.000 -500.000 1.0000 1489.000 1 1489.000    0.000 0.0 0.0 0.0 0.0 0.0 0.0 0.0 0.0 0.0 0.0 0.0;
   262 1195.999   32.102 1902.000 -1168.000 1.0000 5451.000 1 5451.000    0.000 0.0 0.0 0.0 0.0 0.0 0.0 0.0 0.0 0.0 0.0 0.0;
   266  704.000   32.102  561.000 -553.000 1.0000 3210.000 1 3210.000    0.000 0.0 0.0 0.0 0.0 0.0 0.0 0.0 0.0 0.0 0.0 0.0;
    48 1000.000 -242.186  800.000 -800.000 1.0000 1666.000 1 1666.000    0.000 0.0 0.0 0.0 0.0 0.0 0.0 0.0 0.0 0.0 0.0 0.0;
];

%% branch data - BESLine+BESCompSeries+collected transformers
%	fbus tbus r x b rateA rateB rateC ratio angle status angmin angmax
mpc.branch = [
     1    10  0.001708  0.031135  3.374457 1800.000 0.0 0.0 0.0 0.0 1 0.0 0.0;
     1    11  0.010686  0.095996  0.330476 1800.000 0.0 0.0 0.0 0.0 1 0.0 0.0;
     2     4  0.000500  0.005300  0.088203 1084.000 0.0 0.0 0.0 0.0 1 0.0 0.0;
     2     8  0.001760  0.019712  2.587049 1084.000 0.0 0.0 0.0 0.0 1 0.0 0.0;
     2     8  0.001760  0.019712  2.587049 1084.000 0.0 0.0 0.0 0.0 1 0.0 0.0;
     2   227  0.004751  0.043379  0.709626 1084.000 0.0 0.0 0.0 0.0 1 0.0 0.0;
     4   233  0.007231  0.129446  2.504756 1084.000 0.0 0.0 0.0 0.0 1 0.0 0.0;
     4   234  0.009065  0.106042  2.037485 1084.000 0.0 0.0 0.0 0.0 1 0.0 0.0;
     7    18  0.002780  0.021026  1.021231 1800.000 0.0 0.0 0.0 0.0 1 0.0 0.0;
     7    18  0.002780  0.021026  1.021231 1800.000 0.0 0.0 0.0 0.0 1 0.0 0.0;
    10    11  0.000768  0.005353  1.399294 1800.000 0.0 0.0 0.0 0.0 1 0.0 0.0;
    10    19  0.001738  0.025544  3.417275 1800.000 0.0 0.0 0.0 0.0 1 0.0 0.0;
    10    80  0.002033  0.013570  3.969509 1800.000 0.0 0.0 0.0 0.0 1 0.0 0.0;
    11    14  0.002780  0.021026  1.021231 1800.000 0.0 0.0 0.0 0.0 1 0.0 0.0;
    11    19  0.002275  0.033916  4.935615 1800.000 0.0 0.0 0.0 0.0 1 0.0 0.0;
    13    14  0.002780  0.021026  1.021231 1800.000 0.0 0.0 0.0 0.0 1 0.0 0.0;
    13    19  0.002780  0.021026  1.021231 1800.000 0.0 0.0 0.0 0.0 1 0.0 0.0;
    13    19  0.006046  0.066468  1.122632 1800.000 0.0 0.0 0.0 0.0 1 0.0 0.0;
    13    56  0.001782  0.025183  0.536064 1800.000 0.0 0.0 0.0 0.0 1 0.0 0.0;
    13    80  0.010686  0.095996  0.330476 1800.000 0.0 0.0 0.0 0.0 1 0.0 0.0;
    15   228  0.007702  0.133454  1.130018 1084.000 0.0 0.0 0.0 0.0 1 0.0 0.0;
    18    19  0.000399  0.009586  0.904454 1800.000 0.0 0.0 0.0 0.0 1 0.0 0.0;
    18    19  0.000399  0.009586  0.904454 1800.000 0.0 0.0 0.0 0.0 1 0.0 0.0;
    18    30  0.002535  0.029358  2.164534 1800.000 0.0 0.0 0.0 0.0 1 0.0 0.0;
    18    33  0.002535  0.029358  2.164534 1800.000 0.0 0.0 0.0 0.0 1 0.0 0.0;
    20    24  0.008418  0.070210  0.159689  600.000 0.0 0.0 0.0 0.0 1 0.0 0.0;
    22    27  0.001376  0.053916  0.152625  600.000 0.0 0.0 0.0 0.0 1 0.0 0.0;
    22    31  0.001376  0.053916  0.152625  600.000 0.0 0.0 0.0 0.0 1 0.0 0.0;
    24    31  0.008418  0.070210  0.159689  600.000 0.0 0.0 0.0 0.0 1 0.0 0.0;
    26    30  0.001758  0.025013  2.162803 1800.000 0.0 0.0 0.0 0.0 1 0.0 0.0;
    27    28  0.003115  0.028839  0.152576  600.000 0.0 0.0 0.0 0.0 1 0.0 0.0;
    27    28  0.003115  0.028839  0.152576  600.000 0.0 0.0 0.0 0.0 1 0.0 0.0;
    27    51  0.003115  0.028839  0.152576  600.000 0.0 0.0 0.0 0.0 1 0.0 0.0;
    28    51  0.003115  0.028839  0.152576  600.000 0.0 0.0 0.0 0.0 1 0.0 0.0;
    28    51  0.003115  0.028839  0.152576  600.000 0.0 0.0 0.0 0.0 1 0.0 0.0;
    33    36  0.000419  0.009041  0.668277 1800.000 0.0 0.0 0.0 0.0 1 0.0 0.0;
    34    35  0.000280  0.007525  0.517528 1800.000 0.0 0.0 0.0 0.0 1 0.0 0.0;
    34    35  0.000350  0.007495  0.553792 1800.000 0.0 0.0 0.0 0.0 1 0.0 0.0;
    34    37  0.000439  0.011233  0.829845 1800.000 0.0 0.0 0.0 0.0 1 0.0 0.0;
    34    37  0.000439  0.011233  0.829845 1800.000 0.0 0.0 0.0 0.0 1 0.0 0.0;
    34    49  0.000598  0.012774  0.947156 1800.000 0.0 0.0 0.0 0.0 1 0.0 0.0;
    34    56  0.000200  0.004099  0.296230 1800.000 0.0 0.0 0.0 0.0 1 0.0 0.0;
    34    80  0.001847  0.027195  4.722393 1800.000 0.0 0.0 0.0 0.0 1 0.0 0.0;
    34    81  0.001819  0.030344  4.185055 1800.000 0.0 0.0 0.0 0.0 1 0.0 0.0;
    35    49  0.000210  0.004569  0.323400 1800.000 0.0 0.0 0.0 0.0 1 0.0 0.0;
    36    49  0.000399  0.009290  0.685965 1800.000 0.0 0.0 0.0 0.0 1 0.0 0.0;
    38    39  0.001399  0.026388  0.102023  600.000 0.0 0.0 0.0 0.0 1 0.0 0.0;
    38    43  0.000650  0.011869  0.046722  600.000 0.0 0.0 0.0 0.0 1 0.0 0.0;
    38    43  0.000650  0.011869  0.046722  600.000 0.0 0.0 0.0 0.0 1 0.0 0.0;
    39    41  0.001898  0.025789  0.098421  600.000 0.0 0.0 0.0 0.0 1 0.0 0.0;
    39    43  0.008418  0.070210  0.159689  600.000 0.0 0.0 0.0 0.0 1 0.0 0.0;
    40    41  0.001100  0.012699  0.048002  600.000 0.0 0.0 0.0 0.0 1 0.0 0.0;
    41    42  0.001376  0.053916  0.152625  600.000 0.0 0.0 0.0 0.0 1 0.0 0.0;
    41    42  0.001376  0.053916  0.152625  600.000 0.0 0.0 0.0 0.0 1 0.0 0.0;
    41    44  0.003194  0.039463  0.144068  600.000 0.0 0.0 0.0 0.0 1 0.0 0.0;
    41    50  0.003115  0.028839  0.152576  600.000 0.0 0.0 0.0 0.0 1 0.0 0.0;
    42    50  0.003115  0.028839  0.152576  600.000 0.0 0.0 0.0 0.0 1 0.0 0.0;
    42    51  0.003115  0.028839  0.152576  600.000 0.0 0.0 0.0 0.0 1 0.0 0.0;
    43    44  0.002846  0.036462  0.126609  600.000 0.0 0.0 0.0 0.0 1 0.0 0.0;
    43    44  0.001378  0.033968  0.112556  600.000 0.0 0.0 0.0 0.0 1 0.0 0.0;
    50    51  0.003115  0.028839  0.152576  600.000 0.0 0.0 0.0 0.0 1 0.0 0.0;
    50    51  0.003115  0.028839  0.152576  600.000 0.0 0.0 0.0 0.0 1 0.0 0.0;
    53    54  0.000734  0.018529  1.405699 1800.000 0.0 0.0 0.0 0.0 1 0.0 0.0;
    53    55  0.000815  0.016625  1.189986 1800.000 0.0 0.0 0.0 0.0 1 0.0 0.0;
    53    56  0.000000  0.001590  0.120022 1800.000 0.0 0.0 0.0 0.0 1 0.0 0.0;
    53    56  0.000000  0.001590  0.120022 1800.000 0.0 0.0 0.0 0.0 1 0.0 0.0;
    54    56  0.000821  0.018742  1.671055 1800.000 0.0 0.0 0.0 0.0 1 0.0 0.0;
    56    80  0.001782  0.025183  0.536064 1800.000 0.0 0.0 0.0 0.0 1 0.0 0.0;
    57   220  0.010686  0.095996  0.330476 1084.000 0.0 0.0 0.0 0.0 1 0.0 0.0;
    57   225  0.001794  0.024456  0.439594 1084.000 0.0 0.0 0.0 0.0 1 0.0 0.0;
    57   225  0.001794  0.024456  0.439594 1084.000 0.0 0.0 0.0 0.0 1 0.0 0.0;
    58    60  0.010597  0.078676  0.367588  984.000 0.0 0.0 0.0 0.0 1 0.0 0.0;
    59    60  0.010597  0.078676  0.367588  984.000 0.0 0.0 0.0 0.0 1 0.0 0.0;
    61    64  0.002208  0.033446  0.073395  600.000 0.0 0.0 0.0 0.0 1 0.0 0.0;
    61    65  0.002897  0.037980  0.082422  600.000 0.0 0.0 0.0 0.0 1 0.0 0.0;
    61    71  0.003085  0.046733  0.100840  600.000 0.0 0.0 0.0 0.0 1 0.0 0.0;
    61    72  0.002258  0.034205  0.075076  600.000 0.0 0.0 0.0 0.0 1 0.0 0.0;
    62    68  0.000470  0.007230  0.016240  600.000 0.0 0.0 0.0 0.0 1 0.0 0.0;
    62    70  0.000350  0.005360  0.012040  600.000 0.0 0.0 0.0 0.0 1 0.0 0.0;
    63    66  0.002198  0.034205  0.077177  600.000 0.0 0.0 0.0 0.0 1 0.0 0.0;
    63    66  0.002378  0.036671  0.082861  600.000 0.0 0.0 0.0 0.0 1 0.0 0.0;
    63    69  0.002009  0.030729  0.068872  600.000 0.0 0.0 0.0 0.0 1 0.0 0.0;
    63    70  0.002806  0.042930  0.096513  600.000 0.0 0.0 0.0 0.0 1 0.0 0.0;
    64    65  0.000290  0.004340  0.009500  600.000 0.0 0.0 0.0 0.0 1 0.0 0.0;
    65    68  0.002290  0.015829  0.030601  600.000 0.0 0.0 0.0 0.0 1 0.0 0.0;
    65    68  0.002290  0.015829  0.030601  600.000 0.0 0.0 0.0 0.0 1 0.0 0.0;
    65    71  0.001410  0.009670  0.019400  600.000 0.0 0.0 0.0 0.0 1 0.0 0.0;
    65    71  0.001410  0.009670  0.019400  600.000 0.0 0.0 0.0 0.0 1 0.0 0.0;
    65    71  0.001610  0.009710  0.019280  600.000 0.0 0.0 0.0 0.0 1 0.0 0.0;
    65    71  0.001610  0.009710  0.019280  600.000 0.0 0.0 0.0 0.0 1 0.0 0.0;
    65    72  0.000270  0.003930  0.009180  600.000 0.0 0.0 0.0 0.0 1 0.0 0.0;
    65    72  0.000270  0.003930  0.009180  600.000 0.0 0.0 0.0 0.0 1 0.0 0.0;
    65    72  0.000270  0.003930  0.009180  600.000 0.0 0.0 0.0 0.0 1 0.0 0.0;
    65    73  0.001380  0.011159  0.024701  600.000 0.0 0.0 0.0 0.0 1 0.0 0.0;
    65    73  0.001380  0.011159  0.024701  600.000 0.0 0.0 0.0 0.0 1 0.0 0.0;
    66    69  0.000370  0.003660  0.008300  600.000 0.0 0.0 0.0 0.0 1 0.0 0.0;
    66    70  0.000550  0.005860  0.012460  600.000 0.0 0.0 0.0 0.0 1 0.0 0.0;
    67    69  0.000730  0.010250  0.025581  600.000 0.0 0.0 0.0 0.0 1 0.0 0.0;
    67    69  0.000730  0.010250  0.025581  600.000 0.0 0.0 0.0 0.0 1 0.0 0.0;
    68    70  0.001190  0.012439  0.027981  600.000 0.0 0.0 0.0 0.0 1 0.0 0.0;
    68    70  0.001190  0.012439  0.027981  600.000 0.0 0.0 0.0 0.0 1 0.0 0.0;
    68    73  0.001280  0.009790  0.021200  600.000 0.0 0.0 0.0 0.0 1 0.0 0.0;
    69    70  0.001100  0.011889  0.025141  600.000 0.0 0.0 0.0 0.0 1 0.0 0.0;
    80    81  0.000557  0.014115  1.044184 1800.000 0.0 0.0 0.0 0.0 1 0.0 0.0;
    82    83  0.001100  0.012699  0.048002  600.000 0.0 0.0 0.0 0.0 1 0.0 0.0;
    82    83  0.001100  0.012699  0.048002  600.000 0.0 0.0 0.0 0.0 1 0.0 0.0;
    83    84  0.001100  0.012699  0.048002  600.000 0.0 0.0 0.0 0.0 1 0.0 0.0;
    83    84  0.001100  0.012699  0.048002  600.000 0.0 0.0 0.0 0.0 1 0.0 0.0;
    83    84  0.001100  0.012699  0.048002  600.000 0.0 0.0 0.0 0.0 1 0.0 0.0;
    83    96  0.001100  0.012699  0.048002  600.000 0.0 0.0 0.0 0.0 1 0.0 0.0;
    84    92  0.001100  0.012699  0.048002  600.000 0.0 0.0 0.0 0.0 1 0.0 0.0;
    84    92  0.001100  0.012699  0.048002  600.000 0.0 0.0 0.0 0.0 1 0.0 0.0;
    84    99  0.001100  0.012699  0.048002  600.000 0.0 0.0 0.0 0.0 1 0.0 0.0;
    84    99  0.001100  0.012699  0.048002  600.000 0.0 0.0 0.0 0.0 1 0.0 0.0;
    85    86  0.003115  0.028839  0.152576  131.000 0.0 0.0 0.0 0.0 1 0.0 0.0;
    89    90  0.001100  0.012699  0.048002  600.000 0.0 0.0 0.0 0.0 1 0.0 0.0;
    89    90  0.001100  0.012699  0.048002  600.000 0.0 0.0 0.0 0.0 1 0.0 0.0;
    89    91  0.001100  0.012699  0.048002  600.000 0.0 0.0 0.0 0.0 1 0.0 0.0;
    89    91  0.001100  0.012699  0.048002  600.000 0.0 0.0 0.0 0.0 1 0.0 0.0;
    89   152  0.003115  0.028839  0.152576  600.000 0.0 0.0 0.0 0.0 1 0.0 0.0;
    89   152  0.003115  0.028839  0.152576  600.000 0.0 0.0 0.0 0.0 1 0.0 0.0;
    89   153  0.001100  0.012699  0.048002  600.000 0.0 0.0 0.0 0.0 1 0.0 0.0;
    89   153  0.001100  0.012699  0.048002  600.000 0.0 0.0 0.0 0.0 1 0.0 0.0;
    90    91  0.001100  0.012699  0.048002  600.000 0.0 0.0 0.0 0.0 1 0.0 0.0;
    90    91  0.003115  0.028839  0.152576  600.000 0.0 0.0 0.0 0.0 1 0.0 0.0;
    90    92  0.001100  0.012699  0.048002  600.000 0.0 0.0 0.0 0.0 1 0.0 0.0;
    90    93  0.001100  0.012699  0.048002  600.000 0.0 0.0 0.0 0.0 1 0.0 0.0;
    90   153  0.003115  0.028839  0.152576  600.000 0.0 0.0 0.0 0.0 1 0.0 0.0;
    90   153  0.003115  0.028839  0.152576  600.000 0.0 0.0 0.0 0.0 1 0.0 0.0;
    91    92  0.001100  0.012699  0.048002  600.000 0.0 0.0 0.0 0.0 1 0.0 0.0;
    91    97  0.001100  0.012699  0.048002  600.000 0.0 0.0 0.0 0.0 1 0.0 0.0;
    91    97  0.003115  0.028839  0.152576  600.000 0.0 0.0 0.0 0.0 1 0.0 0.0;
    91    99  0.001100  0.012699  0.048002  600.000 0.0 0.0 0.0 0.0 1 0.0 0.0;
    91   152  0.003115  0.028839  0.152576  600.000 0.0 0.0 0.0 0.0 1 0.0 0.0;
    91   152  0.003115  0.028839  0.152576  600.000 0.0 0.0 0.0 0.0 1 0.0 0.0;
    92    93  0.001100  0.012699  0.048002  600.000 0.0 0.0 0.0 0.0 1 0.0 0.0;
    92    93  0.001100  0.012699  0.048002  600.000 0.0 0.0 0.0 0.0 1 0.0 0.0;
    92   152  0.003115  0.028839  0.152576  600.000 0.0 0.0 0.0 0.0 1 0.0 0.0;
    92   152  0.003115  0.028839  0.152576  600.000 0.0 0.0 0.0 0.0 1 0.0 0.0;
    93   143  0.003115  0.028839  0.152576  600.000 0.0 0.0 0.0 0.0 1 0.0 0.0;
    93   144  0.003115  0.028839  0.152576  600.000 0.0 0.0 0.0 0.0 1 0.0 0.0;
    95   131  0.000529  0.012956  0.506918 1800.000 0.0 0.0 0.0 0.0 1 0.0 0.0;
    95   132  0.000499  0.008802  0.599043 1800.000 0.0 0.0 0.0 0.0 1 0.0 0.0;
    96    98  0.001100  0.012699  0.048002  600.000 0.0 0.0 0.0 0.0 1 0.0 0.0;
    96    98  0.001100  0.012699  0.048002  600.000 0.0 0.0 0.0 0.0 1 0.0 0.0;
    97    98  0.001100  0.012699  0.048002  600.000 0.0 0.0 0.0 0.0 1 0.0 0.0;
    97    98  0.001100  0.012699  0.048002  600.000 0.0 0.0 0.0 0.0 1 0.0 0.0;
    97    98  0.001100  0.012699  0.048002  600.000 0.0 0.0 0.0 0.0 1 0.0 0.0;
    97   147  0.003115  0.028839  0.152576  600.000 0.0 0.0 0.0 0.0 1 0.0 0.0;
    97   147  0.003115  0.028839  0.152576  600.000 0.0 0.0 0.0 0.0 1 0.0 0.0;
    99   152  0.003115  0.028839  0.152576  600.000 0.0 0.0 0.0 0.0 1 0.0 0.0;
   101   102  0.003115  0.028839  0.152576  600.000 0.0 0.0 0.0 0.0 1 0.0 0.0;
   101   102  0.003115  0.028839  0.152576  600.000 0.0 0.0 0.0 0.0 1 0.0 0.0;
   101   104  0.003115  0.028839  0.152576  600.000 0.0 0.0 0.0 0.0 1 0.0 0.0;
   101   105  0.003115  0.028839  0.152576  600.000 0.0 0.0 0.0 0.0 1 0.0 0.0;
   101   105  0.003115  0.028839  0.152576  600.000 0.0 0.0 0.0 0.0 1 0.0 0.0;
   101   117  0.003115  0.028839  0.152576  600.000 0.0 0.0 0.0 0.0 1 0.0 0.0;
   103   104  0.003115  0.028839  0.152576  600.000 0.0 0.0 0.0 0.0 1 0.0 0.0;
   103   117  0.003115  0.028839  0.152576  600.000 0.0 0.0 0.0 0.0 1 0.0 0.0;
   104   117  0.003115  0.028839  0.152576  600.000 0.0 0.0 0.0 0.0 1 0.0 0.0;
   104   117  0.003115  0.028839  0.152576  600.000 0.0 0.0 0.0 0.0 1 0.0 0.0;
   104   146  0.003115  0.028839  0.152576  600.000 0.0 0.0 0.0 0.0 1 0.0 0.0;
   104   147  0.003115  0.028839  0.152576  600.000 0.0 0.0 0.0 0.0 1 0.0 0.0;
   105   136  0.003115  0.028839  0.152576  600.000 0.0 0.0 0.0 0.0 1 0.0 0.0;
   105   136  0.003115  0.028839  0.152576  600.000 0.0 0.0 0.0 0.0 1 0.0 0.0;
   108   143  0.003115  0.028839  0.152576  600.000 0.0 0.0 0.0 0.0 1 0.0 0.0;
   108   144  0.003115  0.028839  0.152576  600.000 0.0 0.0 0.0 0.0 1 0.0 0.0;
   110   154  0.003115  0.028839  0.152576  131.000 0.0 0.0 0.0 0.0 1 0.0 0.0;
   112   155  0.003115  0.028839  0.152576  130.000 0.0 0.0 0.0 0.0 1 0.0 0.0;
   112   155  0.003115  0.028839  0.152576  130.000 0.0 0.0 0.0 0.0 1 0.0 0.0;
   114   115  0.000783  0.019287  1.331356 1800.000 0.0 0.0 0.0 0.0 1 0.0 0.0;
   114   116  0.000861  0.020765  1.460804 1800.000 0.0 0.0 0.0 0.0 1 0.0 0.0;
   114   116  0.000861  0.020765  1.460804 1800.000 0.0 0.0 0.0 0.0 1 0.0 0.0;
   115   123  0.000716  0.015954  1.089481 1800.000 0.0 0.0 0.0 0.0 1 0.0 0.0;
   115   130  0.000826  0.019799  0.776387 1800.000 0.0 0.0 0.0 0.0 1 0.0 0.0;
   116   130  0.001526  0.014680  0.574623 1800.000 0.0 0.0 0.0 0.0 1 0.0 0.0;
   117   119  0.003115  0.028839  0.152576  600.000 0.0 0.0 0.0 0.0 1 0.0 0.0;
   118   119  0.003115  0.028839  0.152576  600.000 0.0 0.0 0.0 0.0 1 0.0 0.0;
   124   125  0.001208  0.026357  1.995815 1800.000 0.0 0.0 0.0 0.0 1 0.0 0.0;
   126   127  0.001208  0.026386  1.997621 1800.000 0.0 0.0 0.0 0.0 1 0.0 0.0;
   128   129  0.001103  0.024977  1.842962 1800.000 0.0 0.0 0.0 0.0 1 0.0 0.0;
   130   131  0.000529  0.012956  0.506918 1800.000 0.0 0.0 0.0 0.0 1 0.0 0.0;
   130   132  0.000914  0.036133  1.395393 1800.000 0.0 0.0 0.0 0.0 1 0.0 0.0;
   130   238  0.000676  0.015802  1.153014 1800.000 0.0 0.0 0.0 0.0 1 0.0 0.0;
   132   133  0.000010  0.003588  0.978406 1800.000 0.0 0.0 0.0 0.0 1 0.0 0.0;
   132   134  0.000979  0.010343  0.404438 1800.000 0.0 0.0 0.0 0.0 1 0.0 0.0;
   132   238  0.001573  0.055850  2.507070 1800.000 0.0 0.0 0.0 0.0 1 0.0 0.0;
   133   134  0.001597  0.012278  0.480314 1800.000 0.0 0.0 0.0 0.0 1 0.0 0.0;
   134   135  0.000720  0.003460  0.135162 1800.000 0.0 0.0 0.0 0.0 1 0.0 0.0;
   135   159  0.000529  0.004557  0.763722 1800.000 0.0 0.0 0.0 0.0 1 0.0 0.0;
   135   159  0.000529  0.004557  0.763722 1800.000 0.0 0.0 0.0 0.0 1 0.0 0.0;
   136   137  0.003115  0.028839  0.152576  600.000 0.0 0.0 0.0 0.0 1 0.0 0.0;
   136   152  0.003115  0.028839  0.152576  600.000 0.0 0.0 0.0 0.0 1 0.0 0.0;
   136   240  0.013773  0.092525  0.110695  600.000 0.0 0.0 0.0 0.0 1 0.0 0.0;
   137   149  0.003115  0.028839  0.152576  600.000 0.0 0.0 0.0 0.0 1 0.0 0.0;
   138   148  0.003115  0.028839  0.152576  600.000 0.0 0.0 0.0 0.0 1 0.0 0.0;
   138   149  0.003115  0.028839  0.152576  600.000 0.0 0.0 0.0 0.0 1 0.0 0.0;
   139   140  0.024537  0.168435  0.202900  600.000 0.0 0.0 0.0 0.0 1 0.0 0.0;
   139   153  0.014740  0.100809  0.120783  600.000 0.0 0.0 0.0 0.0 1 0.0 0.0;
   140   141  0.013773  0.092525  0.110695  600.000 0.0 0.0 0.0 0.0 1 0.0 0.0;
...
];

%%-----  OPF Data  -----%%
%% generator cost data
%	1 startup shutdown n x1 y1 ... xn yn
%	2 startup shutdown n c(n-1) ... c0
mpc.gencost = [
  2 0 0 3 0.0060000 45.000 2230.000;
  2 0 0 3 0.0060000 45.000 2230.000;
  2 0 0 3 0.0060000 45.000 2230.000;
  2 0 0 3 0.0060000 45.000 2230.000;
  2 0 0 3 0.0060000 45.000 2230.000;
  2 0 0 3 0.0060000 45.000 2230.000;
  2 0 0 3 0.0000100 1.290 0.000;
  2 0 0 3 0.0060000 45.000 2230.000;
  2 0 0 3 0.0000100 1.290 0.000;
  2 0 0 3 0.0060000 45.000 2230.000;
  2 0 0 3 0.0060000 45.000 2230.000;
  2 0 0 3 0.0060000 45.000 2230.000;
  2 0 0 3 0.0001900 8.000 1250.000;
  2 0 0 3 0.0060000 45.000 2230.000;
  2 0 0 3 0.0060000 45.000 2230.000;
  2 0 0 3 0.0060000 45.000 2230.000;
  2 0 0 3 0.0060000 45.000 2230.000;
  2 0 0 3 0.0000100 1.290 0.000;
  2 0 0 3 0.0060000 45.000 2230.000;
  2 0 0 3 0.0060000 45.000 2230.000;
  2 0 0 3 0.0060000 45.000 2230.000;
  2 0 0 3 0.0060000 45.000 2230.000;
  2 0 0 3 0.0060000 45.000 2230.000;
  2 0 0 3 0.0060000 45.000 2230.000;
  2 0 0 3 0.0060000 45.000 2230.000;
  2 0 0 3 0.0060000 45.000 2230.000;
  2 0 0 3 0.0060000 45.000 2230.000;
  2 0 0 3 0.0060000 45.000 2230.000;
  2 0 0 3 0.0060000 45.000 2230.000;
  2 0 0 3 0.0060000 45.000 2230.000;
  2 0 0 3 0.0000100 1.290 0.000;
  2 0 0 3 0.0000100 1.290 0.000;
  2 0 0 3 0.0060000 45.000 2230.000;
  2 0 0 3 0.0060000 45.000 2230.000;
  2 0 0 3 0.0060000 45.000 2230.000;
  2 0 0 3 0.0060000 45.000 2230.000;
  2 0 0 3 0.0060000 45.000 2230.000;
  2 0 0 3 0.0060000 45.000 2230.000;
  2 0 0 3 0.0060000 45.000 2230.000;
  2 0 0 3 0.0060000 45.000 2230.000;
  2 0 0 3 0.0060000 45.000 2230.000;
  2 0 0 3 0.0060000 45.000 2230.000;
  2 0 0 3 0.0060000 45.000 2230.000;
  2 0 0 3 0.0060000 45.000 2230.000;
  2 0 0 3 0.0060000 45.000 2230.000;
  2 0 0 3 0.0060000 45.000 2230.000;
  2 0 0 3 0.0060000 45.000 2230.000;
  2 0 0 3 0.0060000 45.000 2230.000;
  2 0 0 3 0.0060000 45.000 2230.000;
  2 0 0 3 0.0060000 45.000 2230.000;
  2 0 0 3 0.0060000 45.000 2230.000;
  2 0 0 3 0.0060000 45.000 2230.000;
  2 0 0 3 0.0060000 45.000 2230.000;
  2 0 0 3 0.0060000 45.000 2230.000;
  2 0 0 3 0.0060000 45.000 2230.000;
  2 0 0 3 0.0060000 45.000 2230.000;
  2 0 0 3 0.0060000 45.000 2230.000;
  2 0 0 3 0.0060000 45.000 2230.000;
  2 0 0 3 0.0060000 45.000 2230.000;
  2 0 0 3 0.0000100 1.290 0.000;
  2 0 0 3 0.0060000 45.000 2230.000;
  2 0 0 3 0.0000100 1.290 0.000;
  2 0 0 3 0.0060000 45.000 2230.000;
  2 0 0 3 0.0000100 1.290 0.000;
  2 0 0 3 0.0060000 45.000 2230.000;
  2 0 0 3 0.0000100 1.290 0.000;
  2 0 0 3 0.0001900 8.000 1250.000;
  2 0 0 3 0.0060000 45.000 2230.000;
  2 0 0 3 0.0060000 45.000 2230.000;
  2 0 0 3 0.0060000 45.000 2230.000;
  2 0 0 3 0.0000100 1.290 0.000;
  2 0 0 3 0.0060000 45.000 2230.000;
  2 0 0 3 0.0060000 45.000 2230.000;
  2 0 0 3 0.0060000 45.000 2230.000;
  2 0 0 3 0.0000100 1.290 0.000;
  2 0 0 3 0.0060000 45.000 2230.000;
  2 0 0 3 0.0060000 45.000 2230.000;
  2 0 0 3 0.0060000 45.000 2230.000;
  2 0 0 3 0.0060000 45.000 2230.000;
  2 0 0 3 0.0060000 45.000 2230.000;
  2 0 0 3 0.0060000 45.000 2230.000;
  2 0 0 3 0.0060000 45.000 2230.000;
  2 0 0 3 0.0060000 45.000 2230.000;
  2 0 0 3 0.0060000 45.000 2230.000;
  2 0 0 3 0.0060000 45.000 2230.000;
  2 0 0 3 0.0060000 45.000 2230.000;
  2 0 0 3 0.0060000 45.000 2230.000;
  2 0 0 3 0.0060000 45.000 2230.000;
  2 0 0 3 0.0000100 1.290 0.000;
  2 0 0 3 0.0060000 45.000 2230.000;
  2 0 0 3 0.0060000 45.000 2230.000;
  2 0 0 3 0.0060000 45.000 2230.000;
  2 0 0 3 0.0060000 45.000 2230.000;
  2 0 0 3 0.0000100 1.290 0.000;
  2 0 0 3 0.0060000 45.000 2230.000;
  2 0 0 3 0.0060000 45.000 2230.000;
  2 0 0 3 0.0060000 45.000 2230.000;
  2 0 0 3 0.0060000 45.000 2230.000;
  2 0 0 3 0.0060000 45.000 2230.000;
  2 0 0 3 0.0000100 1.290 0.000;
  2 0 0 3 0.0060000 45.000 2230.000;
  2 0 0 3 0.0060000 45.000 2230.000;
  2 0 0 3 0.0000100 1.290 0.000;
  2 0 0 3 0.0000100 1.290 0.000;
  2 0 0 3 0.0060000 45.000 2230.000;
  2 0 0 3 0.0000100 0.010 0.000;
  2 0 0 3 0.0000100 0.010 0.000;
  2 0 0 3 0.0000100 0.010 0.000;
  2 0 0 3 0.0000100 0.010 0.000;
  2 0 0 3 0.0000100 0.010 0.000;
  2 0 0 3 0.0000100 0.010 0.000;
  2 0 0 3 0.0000100 0.010 0.000;
  2 0 0 3 0.0000100 0.010 0.000;
  2 0 0 3 0.0000100 0.010 0.000;
  2 0 0 3 0.0000100 0.010 0.000;
  2 0 0 3 0.0000100 0.010 0.000;
  2 0 0 3 0.0000100 0.010 0.000;
  2 0 0 3 0.0000100 0.010 0.000;
  2 0 0 3 0.0000100 0.010 0.000;
  2 0 0 3 0.0000100 0.010 0.000;
  2 0 0 3 0.0000100 0.010 0.000;
  2 0 0 3 0.0000100 0.010 0.000;
  2 0 0 3 0.0000100 0.010 0.000;
  2 0 0 3 0.0000100 0.010 0.000;
  2 0 0 3 0.0000100 0.010 0.000;
  2 0 0 3 0.0000100 0.010 0.000;
  2 0 0 3 0.0000100 0.010 0.000;
  2 0 0 3 0.0000100 0.010 0.000;
  2 0 0 3 0.0000100 0.010 0.000;
  2 0 0 3 0.0000100 0.010 0.000;
  2 0 0 3 0.0000100 0.010 0.000;
  2 0 0 3 0.0000100 0.010 0.000;
  2 0 0 3 0.0000100 0.010 0.000;
  2 0 0 3 0.0000100 0.010 0.000;
  2 0 0 3 0.0000100 0.010 0.000;
  2 0 0 3 0.0000100 0.010 0.000;
  2 0 0 3 0.0000100 0.010 0.000;
  2 0 0 3 0.0000100 0.010 0.000;
  2 0 0 3 0.0000100 0.010 0.000;
  2 0 0 3 0.0000100 0.010 0.000;
];

%% generator unit type (see GENTYPES)
% use WT, PV, HY, ST, CT, ST for corresponding GENFUELS
% WT and PV will use WECC dynamics; the others will use Gov/Exc/PSS dynamics
mpc.gentype = {
  'ST';
  'ST';
  'ST';
  'ST';
  'ST';
  'ST';
  'HY';
  'ST';
  'HY';
  'ST';
  'ST';
  'ST';
  'ST';
  'ST';
  'ST';
  'ST';
  'ST';
  'HY';
  'ST';
  'ST';
  'ST';
  'ST';
  'ST';
  'ST';
  'ST';
  'ST';
  'ST';
  'ST';
  'ST';
  'ST';
  'HY';
  'HY';
  'ST';
  'ST';
  'ST';
  'ST';
  'ST';
  'ST';
  'ST';
  'ST';
  'ST';
  'ST';
  'ST';
  'ST';
  'ST';
  'ST';
  'ST';
  'ST';
  'ST';
  'ST';
  'ST';
  'ST';
  'ST';
  'ST';
  'ST';
  'ST';
  'ST';
  'ST';
  'ST';
  'HY';
  'ST';
  'HY';
  'ST';
  'HY';
  'ST';
  'HY';
  'ST';
  'ST';
  'ST';
  'ST';
  'HY';
  'ST';
  'ST';
  'ST';
  'HY';
  'ST';
  'ST';
  'ST';
  'ST';
  'ST';
  'ST';
  'ST';
  'ST';
  'ST';
  'ST';
  'ST';
  'ST';
  'ST';
  'HY';
  'ST';
  'ST';
  'ST';
  'ST';
  'HY';
  'ST';
  'ST';
  'ST';
  'ST';
  'ST';
  'HY';
  'ST';
  'ST';
  'HY';
  'HY';
  'ST';
  'PV';
  'PV';
  'PV';
  'PV';
  'PV';
  'PV';
  'PV';
  'PV';
  'PV';
  'PV';
  'PV';
  'PV';
  'PV';
  'PV';
  'PV';
  'PV';
  'PV';
  'PV';
  'PV';
  'PV';
  'PV';
  'PV';
  'PV';
  'PV';
  'PV';
  'WT';
  'WT';
  'WT';
  'WT';
  'WT';
  'WT';
  'WT';
  'WT';
  'WT';
  'WT';
};

%% generator fuel type (see GENFUELS); use wind, solar, hydro, nuclear, ng, coal
mpc.genfuel = {
  'ng';
  'ng';
  'ng';
  'ng';
  'ng';
  'ng';
  'hydro';
  'ng';
  'hydro';
  'ng';
  'ng';
  'ng';
  'nuclear';
  'ng';
  'ng';
  'ng';
  'ng';
  'hydro';
  'ng';
  'ng';
  'ng';
  'ng';
  'ng';
  'ng';
  'ng';
  'ng';
  'ng';
  'ng';
  'ng';
  'ng';
  'hydro';
  'hydro';
  'ng';
  'ng';
  'ng';
  'ng';
  'ng';
  'ng';
  'ng';
  'ng';
  'ng';
  'ng';
  'ng';
  'ng';
  'ng';
...